#            CONFIGURATION MANAGEMENT OF EDF VERSION
# ======================================================================
# COPYRIGHT (C) 1991 - 2002  EDF R&D                  WWW.CODE-ASTER.ORG
# THIS PROGRAM IS FREE SOFTWARE; YOU CAN REDISTRIBUTE IT AND/OR MODIFY
# IT UNDER THE TERMS OF THE GNU GENERAL PUBLIC LICENSE AS PUBLISHED BY
# THE FREE SOFTWARE FOUNDATION; EITHER VERSION 2 OF THE LICENSE, OR
# (AT YOUR OPTION) ANY LATER VERSION.
#
# THIS PROGRAM IS DISTRIBUTED IN THE HOPE THAT IT WILL BE USEFUL, BUT
# WITHOUT ANY WARRANTY; WITHOUT EVEN THE IMPLIED WARRANTY OF
# MERCHANTABILITY OR FITNESS FOR A PARTICULAR PURPOSE. SEE THE GNU
# GENERAL PUBLIC LICENSE FOR MORE DETAILS.
#
# YOU SHOULD HAVE RECEIVED A COPY OF THE GNU GENERAL PUBLIC LICENSE
# ALONG WITH THIS PROGRAM; IF NOT, WRITE TO EDF R&D CODE_ASTER,
#    1 AVENUE DU GENERAL DE GAULLE, 92141 CLAMART CEDEX, FRANCE.
#
#
# ======================================================================

import os

from Sous_epaisseur import prefs

rep_cata = os.path.join(prefs.repIni,'Cata')
print rep_cata

# Accès à la documentation Aster
path_doc              = os.path.join(rep_cata,'..','Doc')
exec_acrobat    =       "acroread"
# Utilisateur/Développeur
isdeveloppeur   =       "NON"
path_cata_dev   =       "/tmp/cata"
# Répertoire temporaire
rep_travail     =   "/tmp"
# Répertoire initial
initialdir=os.curdir

# Choix des catalogues

catalogues = (
              ('Sous_epaisseur','v1.0',os.path.join(rep_cata,'SEP_Cata_V1_4'),'python'),
             )

